test/data/EMG.raw
     0,   100.0,    32,     0,     0,    0.00 / PSS(R)E 32
 ONS * PARPEL  *PUC                                          
                                                             
   258,'LIGHT       ',   1.0000,  3,    1,    1,    1,   1.020000,     0.0000
  1752,'FRIBUR-RJ138',   1.0000,  3,   65,    1,    1,   1.000000,     0.0000
  1753,'FRIBUR-RJ069',   1.0000,  1,   65,    1,    1,   1.005000,    -1.9000
  3300,'APARAI-MG138',   1.0000,  1,   18,    1,    1,   1.016000,     0.2240
  3301,'LEOPOL-MG138',   1.0000,  1,   18,    1,    1,   1.000000,     1.1700
  3302,'LEOPOL-MG069',   1.0000,  1,   18,    1,    1,   1.026000,     1.1700
  3303,'N.U.MA-MG138',   1.0000,  1,   18,    1,    1,   0.991000,     1.6700
  3304,'N.U.MAPCH069',   1.0000,  2,   18,    1,    1,   1.001000,     2.8700
  3305,'CATAG2-MG138',   1.0000,  1,   18,    1,    1,   0.988000,     1.7600
  3306,'CATAG2PCH069',   1.0000,  2,   18,    1,    1,   1.018000,     1.7300
  3307,'MURIA2-MG138',   1.0000,  1,   18,    1,    1,   0.968000,     3.0900
  3308,'MURIA2-MG069',   1.0000,  2,   18,    1,    1,   0.993000,     5.0100
  3309,'MURIA1PCH069',   1.0000,  2,   18,    1,    1,   0.970000,     6.8000
  3310,'UBA-2--MG138',   1.0000,  1,   18,    1,    1,   0.993000,     1.0200
  3311,'UBA-2--MG069',   1.0000,  1,   18,    1,    1,   1.018000,     1.0200
  3312,'UBA-1--MG069',   1.0000,  1,   18,    1,    1,   1.018000,     1.0200
  3313,'VRBRA2-MG138',   1.0000,  1,   18,    1,    1,   0.989000,     0.9190
  3314,'VRBRA2-MG069',   1.0000,  1,   18,    1,    1,   1.000000,     0.9350
  3315,'VRBRA1-MG069',   1.0000,  1,   18,    1,    1,   1.000000,     0.9350
  3316,'U.ITU-PCH069',   1.0000,  2,   18,    1,    1,   0.999000,     0.7920
  3317,'TOCANT-MG138',   1.0000,  1,   18,    1,    1,   0.996000,     0.9510
  3318,'CATAG1-MG069',   1.0000,  1,   18,    1,    1,   1.013000,     1.6300
  3319,'MANHU-PCH069',   1.0000,  2,   18,    1,    1,   0.982000,    -1.1000
  3320,'REALEZ-MG069',   1.0000,  1,   18,    1,    1,   1.024000,    -0.2500
  3321,'MATIPO-MG138',   1.0000,  1,   18,    1,    1,   1.025000,    -0.3000
  3322,'MATIPOPCH069',   1.0000,  2,   18,    1,    1,   1.024000,    -0.2300
  3323,'U.GRANPCH138',   1.0000,  2,   18,    1,    1,   1.025000,    -0.3000
  3324,'APARAI-MG069',   1.0000,  1,   18,    1,    1,   1.016000,     0.2240
  3325,'LARANJ-MG069',   1.0000,  1,   18,    1,    1,   0.997000,     3.8400
  3326,'U.ERV-PCH069',   1.0000,  2,   18,    1,    1,   0.966000,     2.7800
  3327,'U.ENC-PCH069',   1.0000,  2,   18,    1,    1,   0.994000,     5.0000
  3328,'GUIRIC-MG069',   1.0000,  1,   18,    1,    1,   0.982000,     1.9000
  3329,'S.M.AN-MG138',   1.0000,  2,   18,    1,    1,   0.994000,     0.6280
  3330,'U.GUA-PCH138',   1.0000,  2,   18,    1,    1,   1.015000,     0.5230
  3331,'SJNEPU-MG069',   1.0000,  1,   18,    1,    1,   1.001000,     2.8400
  3332,'U.ITUE-MG138',   1.0000,  1,   18,    1,    1,   1.003000,     0.7760
  3333,'U.TRI-PCH138',   1.0000,  2,   18,    1,    1,   0.985000,     1.5700
  3334,'ASTOLF-MG069',   1.0000,  1,   18,    1,    1,   1.001000,     2.8400
  3335,'RODEIR-MG069',   1.0000,  1,   18,    1,    1,   1.002000,     2.8400
  3336,'DIVIN--MG069',   1.0000,  1,   18,    1,    1,   1.018000,     1.0200
  3337,'BRAU--PCH138',   1.0000,  2,   18,    1,    1,   0.981000,     2.3600
  3338,'P.FIAL-MG138',   1.0000,  1,   18,    1,    1,   1.025000,    -0.3000
  3339,'UBA3---MG138',   1.0000,  1,   18,    1,    1,   0.990000,     1.1700
  3340,'JAP----RJ069',   1.0000,  2,   65,    1,    1,   1.004000,    -1.9000
  3341,'SAMARC-MG138',   1.0000,  1,   18,    1,    1,   1.024000,    -0.4500
  3342,'LUM----RJ138',   1.0000,  1,   65,    1,    1,   1.000000,     0.0000
  3343,'CONQUI-RJ138',   1.0000,  1,   65,    1,    1,   1.000000,     0.0000
  3344,'FURNAS      ',   1.0000,  3,    1,    1,    1,   1.020000,     0.0000
  3345,'PF.DEF-MG138',   1.0000,  1,   18,    1,    1,   1.026000,    -0.3100
  3348,'MRI-DV-MG069',   1.0000,  1,   18,    1,    1,   1.005000,     3.0100
  3349,'MAU2---MG138',   1.0000,  1,   18,    1,    1,   1.026000,    -0.4800
  3381,'MRU----MG069',   1.0000,  1,   18,    1,    1,   0.994000,     4.9700
  4063,'CEMIG       ',   1.0000,  3,    1,    1,    1,   1.020000,     0.0000
  4100,'JFORA1UTE001',   1.0000,  2,   18,    1,    1,   1.040000,     0.4120
  4101,'JFORA--MG138',   1.0000,  1,   18,    1,    1,   1.021000,     0.4110
  9001,'MANHUA-MG138',   1.0000,  1,   18,    1,    1,   1.020000,     0.0000
  9042,'ENEL-----CEN',   1.0000,  3,    1,    1,    1,   1.000000,     0.0000
  9043,'ENEL---CQT  ',   1.0000,  3,    1,    1,    1,   1.000000,     0.0000
  9619,'IL-AP1-RJ138',   1.0000,  1,   18,    1,    1,   1.018000,     0.1110
  9620,'IL-AP2-RJ138',   1.0000,  1,   18,    1,    1,   1.018000,     0.1110
 0  / END OF BUS DATA, BEGIN LOAD DATA
  3302,'1 ', 1,  18,    1,      0.003,      0.001,     0.000,       0.000,       0.000,     0.000,   1, 1
  3304,'1 ', 1,  18,    1,      2.800,      1.100,     0.000,       0.000,       0.000,     0.000,   1, 1
  3305,'1 ', 1,  18,    1,      0.002,      0.000,     0.000,       0.000,       0.000,     0.000,   1, 1
  3308,'1 ', 1,  18,    1,      0.002,      0.000,     0.000,       0.000,       0.000,     0.000,   1, 1
  3309,'1 ', 1,  18,    1,      0.002,      0.001,     0.000,       0.000,       0.000,     0.000,   1, 1
  3310,'1 ', 1,  18,    1,      0.003,      0.000,     0.000,       0.000,       0.000,     0.000,   1, 1
  3312,'1 ', 1,  18,    1,      0.001,      0.000,     0.000,       0.000,       0.000,     0.000,   1, 1
  3313,'1 ', 1,  18,    1,      2.600,      1.100,     0.000,       0.000,       0.000,     0.000,   1, 1
  3314,'1 ', 1,  18,    1,      0.001,      0.000,     0.000,       0.000,       0.000,     0.000,   1, 1
  3315,'1 ', 1,  18,    1,      0.002,      0.000,     0.000,       0.000,       0.000,     0.000,   1, 1
  3316,'1 ', 1,  18,    1,      0.001,      0.000,     0.000,       0.000,       0.000,     0.000,   1, 1
  3317,'1 ', 1,  18,    1,      0.001,      0.000,     0.000,       0.000,       0.000,     0.000,   1, 1
  3318,'1 ', 1,  18,    1,      5.500,      2.500,     0.000,       0.000,       0.000,     0.000,   1, 1
  3319,'1 ', 1,  18,    1,     30.600,     10.000,     0.000,       0.000,       0.000,     0.000,   1, 1
  3320,'1 ', 1,  18,    1,      0.001,      0.000,     0.000,       0.000,       0.000,     0.000,   1, 1
  3322,'1 ', 1,  18,    1,      0.001,      0.000,     0.000,       0.000,       0.000,     0.000,   1, 1
  3324,'1 ', 1,  18,    1,      0.001,      0.000,     0.000,       0.000,       0.000,     0.000,   1, 1
  3325,'1 ', 1,  18,    1,      0.000,      0.000,     0.000,       0.000,       0.000,     0.000,   1, 1
  3326,'1 ', 1,  18,    1,      0.000,      0.000,     0.000,       0.000,       0.000,     0.000,   1, 1
  3327,'1 ', 1,  18,    1,      0.000,      0.000,     0.000,       0.000,       0.000,     0.000,   1, 1
  3328,'1 ', 1,  18,    1,      0.000,      0.000,     0.000,       0.000,       0.000,     0.000,   1, 1
  3329,'1 ', 1,  18,    1,      0.000,      0.000,     0.000,       0.000,       0.000,     0.000,   1, 1
  3331,'1 ', 1,  18,    1,      0.001,      0.000,     0.000,       0.000,       0.000,     0.000,   1, 1
  3334,'1 ', 1,  18,    1,      0.001,      0.000,     0.000,       0.000,       0.000,     0.000,   1, 1
  3335,'1 ', 1,  18,    1,      0.001,      0.000,     0.000,       0.000,       0.000,     0.000,   1, 1
  3336,'1 ', 1,  18,    1,      0.000,      0.000,     0.000,       0.000,       0.000,     0.000,   1, 1
  3338,'1 ', 1,  18,    1,      1.400,      0.300,     0.000,       0.000,       0.000,     0.000,   1, 1
  3339,'1 ', 1,  18,    1,      0.001,      0.001,     0.000,       0.000,       0.000,     0.000,   1, 1
  3340,'1 ', 1,  65,    1,     61.000,     15.200,     0.000,       0.000,       0.000,     0.000,   1, 1
  3341,'1 ', 1,  18,    1,     10.000,      2.200,     0.000,       0.000,       0.000,     0.000,   1, 1
  3342,'1 ', 1,  65,    1,      0.000,      0.000,     0.000,       0.000,       0.000,     0.000,   1, 1
  3343,'1 ', 1,  65,    1,      0.001,      0.000,     0.000,       0.000,       0.000,     0.000,   1, 1
  3348,'1 ', 1,  18,    1,      0.000,      0.000,     0.000,       0.000,       0.000,     0.000,   1, 1
  3349,'1 ', 1,  18,    1,      0.001,      0.000,     0.000,       0.000,       0.000,     0.000,   1, 1
  3381,'1 ', 1,  18,    1,      0.000,      0.000,     0.000,       0.000,       0.000,     0.000,   1, 1
 0  / END OF LOAD DATA, BEGIN FIXED SHUNT DATA
 0  / END OF FIXED SHUNT DATA, BEGIN GENERATOR DATA
   258,'1 ',   -14.000,     36.790,  99999.000,  -9999.000,    1.0200,      0,    100.000,     0.0000,     0.0003,    0.0000,    0.0000,    1.0000,  1,   100.0,     -14.000,     -14.000,    1,    1.000,     0,    0.000,     0,    0.000,     0,    0.000,  0,      0.000
  1752,'1 ',    61.020,     21.250,  99999.000,  -9999.000,    1.0000,      0,    100.000,     0.0000,     0.0003,    0.0000,    0.0000,    1.0000,  1,   100.0,      61.020,      61.020,    1,    1.000,     0,    0.000,     0,    0.000,     0,    0.000,  0,      0.000
  3304,'1 ',    15.000,     -9.230,      6.900,     -6.900,    1.0010,      0,    100.000,     0.0000,     1.8170,    0.0000,    0.0000,    1.0000,  1,   100.0,      15.000,      15.000,    1,    1.000,     0,    0.000,     0,    0.000,     0,    0.000,  0,      0.000
  3306,'1 ',     1.160,     -0.346,      0.660,     -0.660,    1.0180,      0,    100.000,     0.0000,    22.4784,    0.0000,    0.0000,    1.0000,  1,   100.0,       1.160,       1.160,    1,    1.000,     0,    0.000,     0,    0.000,     0,    0.000,  0,      0.000
  3308,'1 ',     7.000,      0.000,      0.000,      0.000,    0.9930,      0,    100.000,     0.0000,     4.2857,    0.0000,    0.0000,    1.0000,  1,   100.0,       7.000,       7.000,    1,    1.000,     0,    0.000,     0,    0.000,     0,    0.000,  0,      0.000
  3309,'1 ',     7.800,    -34.000,      1.500,     -1.500,    0.9700,      0,    100.000,     0.0000,     3.7769,    0.0000,    0.0000,    1.0000,  1,   100.0,       7.800,       7.800,    1,    1.000,     0,    0.000,     0,    0.000,     0,    0.000,  0,      0.000
  3316,'1 ',     0.000,     -1.970,      1.210,     -1.210,    0.9990,      0,    100.000,     0.0000,    24.7934,    0.0000,    0.0000,    1.0000,  1,   100.0,       0.000,       0.000,    1,    1.000,     0,    0.000,     0,    0.000,     0,    0.000,  0,      0.000
  3319,'1 ',    16.400,    -11.900,      5.800,     -5.800,    0.9820,      0,    100.000,     0.0000,     1.7246,    0.0000,    0.0000,    1.0000,  1,   100.0,      16.400,      16.400,    1,    1.000,     0,    0.000,     0,    0.000,     0,    0.000,  0,      0.000
  3322,'1 ',     0.500,     -0.731,      0.370,     -0.370,    1.0240,      0,    100.000,     0.0000,    48.2305,    0.0000,    0.0000,    1.0000,  1,   100.0,       0.500,       0.500,    1,    1.000,     0,    0.000,     0,    0.000,     0,    0.000,  0,      0.000
  3323,'1 ',     0.000,      0.757,     16.800,    -16.800,    1.0250,      0,    100.000,     0.0000,     1.7857,    0.0000,    0.0000,    1.0000,  1,   100.0,       0.000,       0.000,    1,    1.000,     0,    0.000,     0,    0.000,     0,    0.000,  0,      0.000
  3326,'1 ',     0.000,     -9.850,      2.000,     -2.000,    0.9660,      0,    100.000,     0.0000,    15.0000,    0.0000,    0.0000,    1.0000,  1,   100.0,       0.000,       0.000,    1,    1.000,     0,    0.000,     0,    0.000,     0,    0.000,  0,      0.000
  3327,'1 ',     0.000,      0.988,     11.100,    -11.100,    0.9940,      0,    100.000,     0.0000,     2.7027,    0.0000,    0.0000,    1.0000,  1,   100.0,       0.000,       0.000,    1,    1.000,     0,    0.000,     0,    0.000,     0,    0.000,  0,      0.000
  3329,'1 ',     0.000,    -17.000,      0.000,      0.000,    0.9940,      0,    100.000,     0.0000,     0.1000,    0.0000,    0.0000,    1.0000,  1,   100.0,       0.000,       0.000,    1,    1.000,     0,    0.000,     0,    0.000,     0,    0.000,  0,      0.000
  3330,'1 ',     0.000,      1.351,      1.530,     -1.530,    1.0150,      0,    100.000,     0.0000,    19.6078,    0.0000,    0.0000,    1.0000,  1,   100.0,       0.000,       0.000,    1,    1.000,     0,    0.000,     0,    0.000,     0,    0.000,  0,      0.000
  3333,'1 ',     0.001,    -19.000,     17.700,    -17.700,    0.9850,      0,    100.000,     0.0000,     1.6949,    0.0000,    0.0000,    1.0000,  1,   100.0,       0.001,       0.001,    1,    1.000,     0,    0.000,     0,    0.000,     0,    0.000,  0,      0.000
  3337,'1 ',     0.001,      5.858,     16.000,    -16.000,    0.9810,      0,    100.000,     0.0000,     1.8750,    0.0000,    0.0000,    1.0000,  1,   100.0,       0.001,       0.001,    1,    1.000,     0,    0.000,     0,    0.000,     0,    0.000,  0,      0.000
  3340,'1 ',     0.000,     -3.830,     -3.830,     -3.830,    1.0040,      0,    100.000,     0.0000,     7.8329,    0.0000,    0.0000,    1.0000,  1,   100.0,       0.000,       0.000,    1,    1.000,     0,    0.000,     0,    0.000,     0,    0.000,  0,      0.000
  3344,'1 ',     8.682,     14.860,  99999.000,  -9999.000,    1.0200,      0,    100.000,     0.0000,     0.0003,    0.0000,    0.0000,    1.0000,  1,   100.0,       8.682,       8.682,    1,    1.000,     0,    0.000,     0,    0.000,     0,    0.000,  0,      0.000
  4063,'1 ',    14.300,     23.070,  99999.000,  -9999.000,    1.0200,      0,    100.000,     0.0000,     0.0003,    0.0000,    0.0000,    1.0000,  1,   100.0,      14.300,      14.300,    1,    1.000,     0,    0.000,     0,    0.000,     0,    0.000,  0,      0.000
  4100,'1 ',     0.004,      8.346,     28.000,    -21.000,    1.0400,      0,    100.000,     0.0000,     1.0714,    0.0000,    0.0000,    1.0000,  1,   100.0,       0.004,       0.004,    1,    1.000,     0,    0.000,     0,    0.000,     0,    0.000,  0,      0.000
  9042,'1 ',     0.000,      0.000,  99999.000,  -9999.000,    1.0000,      0,    100.000,     0.0000,     0.0003,    0.0000,    0.0000,    1.0000,  1,   100.0,       0.000,       0.000,    1,    1.000,     0,    0.000,     0,    0.000,     0,    0.000,  0,      0.000
  9043,'1 ',     0.001,      0.000,  99999.000,  -9999.000,    1.0000,      0,    100.000,     0.0000,     0.0003,    0.0000,    0.0000,    1.0000,  1,   100.0,       0.001,       0.001,    1,    1.000,     0,    0.000,     0,    0.000,     0,    0.000,  0,      0.000
 0  / END OF GENERATOR DATA, BEGIN BRANCH DATA
   258,  9619,'01', 0.60970E-02,  0.12666E-01,   0.00306,    96.0,    96.0,    96.0,   0.00000,   0.00000,   0.00000,   0.00000,  1,  1,     0.00,   0,   1.0000
   258,  9620,'01', 0.60970E-02,  0.12666E-01,   0.00306,    96.0,    96.0,    96.0,   0.00000,   0.00000,   0.00000,   0.00000,  1,  1,     0.00,   0,   1.0000
  1753,  3340,'01', 0.50000E-03,  0.50000E-03,   0.00000,    61.0,    61.0,   103.0,   0.00000,   0.00000,   0.00000,   0.00000,  1,  1,     0.00,   0,   1.0000
  3300,  3301,'01', 0.51900E-01,  0.11090E+00,   0.02515,    95.0,    95.0,   103.0,   0.00000,   0.00000,   0.00000,   0.00000,  1,  1,     0.00,   0,   1.0000
  3300,  3305,'01', 0.69600E-01,  0.14760E+00,   0.03376,    95.0,    95.0,    25.0,   0.00000,   0.00000,   0.00000,   0.00000,  1,  1,     0.00,   0,   1.0000
  3300,  9619,'01', 0.60980E-02,  0.12666E-01,   0.00306,    96.0,   120.0,    96.0,   0.00000,   0.00000,   0.00000,   0.00000,  1,  1,     0.00,   0,   1.0000
  3300,  9620,'01', 0.60980E-02,  0.12666E-01,   0.00306,    96.0,   120.0,    96.0,   0.00000,   0.00000,   0.00000,   0.00000,  1,  1,     0.00,   0,   1.0000
  3301,  3303,'01', 0.25200E-01,  0.54100E-01,   0.01276,    95.0,    95.0,    95.0,   0.00000,   0.00000,   0.00000,   0.00000,  1,  1,     0.00,   0,   1.0000
  3303,  3305,'01', 0.28100E-01,  0.59500E-01,   0.01370,    95.0,    95.0,   144.0,   0.00000,   0.00000,   0.00000,   0.00000,  1,  1,     0.00,   0,   1.0000
  3303,  3333,'01', 0.29900E-01,  0.65000E-01,   0.01507,   110.0,   115.0,   139.0,   0.00000,   0.00000,   0.00000,   0.00000,  1,  1,     0.00,   0,   1.0000
  3304,  3331,'01', 0.26630E+00,  0.27400E+00,   0.00344,    19.0,    19.0,   139.0,   0.00000,   0.00000,   0.00000,   0.00000,  1,  1,     0.00,   0,   1.0000
  3304,  3334,'01', 0.19600E+00,  0.20170E+00,   0.00253,    23.0,    23.0,   144.0,   0.00000,   0.00000,   0.00000,   0.00000,  1,  1,     0.00,   0,   1.0000
  3305,  3337,'01', 0.26200E-01,  0.68600E-01,   0.01640,   105.0,   105.0,    80.0,   0.00000,   0.00000,   0.00000,   0.00000,  1,  1,     0.00,   0,   1.0000
  3308,  3327,'01', 0.18600E-01,  0.46900E-01,   0.00076,    60.0,    60.0,   206.0,   0.00000,   0.00000,   0.00000,   0.00000,  1,  1,     0.00,   0,   1.0000
  3309,  3308,'01', 0.11680E+00,  0.12020E+00,   0.00151,    23.0,    23.0,   141.0,   0.00000,   0.00000,   0.00000,   0.00000,  1,  1,     0.00,   0,   1.0000
  3310,  3313,'01', 0.17900E-01,  0.46800E-01,   0.01119,   110.0,   115.0,   300.0,   0.00000,   0.00000,   0.00000,   0.00000,  1,  1,     0.00,   0,   1.0000
  3310,  3317,'01', 0.91000E-02,  0.23900E-01,   0.00572,    95.0,    95.0,    37.0,   0.00000,   0.00000,   0.00000,   0.00000,  1,  1,     0.00,   0,   1.0000
  3312,  3311,'01', 0.14400E-01,  0.36200E-01,   0.00059,    28.0,    28.0,    37.0,   0.00000,   0.00000,   0.00000,   0.00000,  1,  1,     0.00,   0,   1.0000
  3312,  3336,'01', 0.43600E-01,  0.44900E-01,   0.00056,    32.0,    32.0,    51.0,   0.00000,   0.00000,   0.00000,   0.00000,  1,  1,     0.00,   0,   1.0000
  3313,  3329,'01', 0.44300E-01,  0.11590E+00,   0.02773,   110.0,   115.0,   194.0,   0.00000,   0.00000,   0.00000,   0.00000,  1,  1,     0.00,   0,   1.0000
  3314,  3328,'01', 0.17350E+00,  0.17850E+00,   0.00224,     8.0,     8.0,   194.0,   0.00000,   0.00000,   0.00000,   0.00000,  1,  1,     0.00,   0,   1.0000
  3315,  3314,'01', 0.92000E-02,  0.95000E-02,   0.00012,    28.0,    28.0,   194.0,   0.00000,   0.00000,   0.00000,   0.00000,  1,  1,     0.00,   0,   1.0000
  3317,  3332,'01', 0.24900E-01,  0.65200E-01,   0.01560,    95.0,    95.0,   194.0,   0.00000,   0.00000,   0.00000,   0.00000,  1,  1,     0.00,   0,   1.0000
  3318,  3306,'01', 0.58400E-01,  0.60100E-01,   0.00075,    19.0,    19.0,   239.0,   0.00000,   0.00000,   0.00000,   0.00000,  1,  1,     0.00,   0,   1.0000
  3320,  3322,'01', 0.25510E+00,  0.26250E+00,   0.00329,    28.0,    28.0,   194.0,   0.00000,   0.00000,   0.00000,   0.00000,  1,  1,     0.00,   0,   1.0000
  3321,  3323,'01', 0.56000E-02,  0.14600E-01,   0.00350,   105.0,   105.0,   153.0,   0.00000,   0.00000,   0.00000,   0.00000,  1,  1,     0.00,   0,   1.0000
  3325,  3309,'01', 0.31200E+00,  0.32100E+00,   0.00403,    14.0,    14.0,   153.0,   0.00000,   0.00000,   0.00000,   0.00000,  1,  1,     0.00,   0,   1.0000
  3326,  3328,'01', 0.14810E+00,  0.15240E+00,   0.00191,    11.0,    11.0,   153.0,   0.00000,   0.00000,   0.00000,   0.00000,  1,  1,     0.00,   0,   1.0000
  3329,  3338,'01', 0.66300E-01,  0.17360E+00,   0.04152,   110.0,   110.0,    61.0,   0.00000,   0.00000,   0.00000,   0.00000,  1,  1,     0.00,   0,   1.0000
  3330,  3332,'01', 0.36400E-01,  0.95200E-01,   0.02275,   114.0,   114.0,   153.0,   0.00000,   0.00000,   0.00000,   0.00000,  1,  1,     0.00,   0,   1.0000
  3333,  3339,'01', 0.29500E-01,  0.64800E-01,   0.01508,    95.0,    95.0,    95.0,   0.00000,   0.00000,   0.00000,   0.00000,  1,  1,     0.00,   0,   1.0000
  3334,  3335,'01', 0.92300E-01,  0.94900E-01,   0.00119,    23.0,    23.0,   153.0,   0.00000,   0.00000,   0.00000,   0.00000,  1,  1,     0.00,   0,   1.0000
  3337,  3307,'01', 0.26200E-01,  0.68600E-01,   0.01640,   105.0,   105.0,   144.0,   0.00000,   0.00000,   0.00000,   0.00000,  1,  1,     0.00,   0,   1.0000
  3338,  3321,'01', 0.61000E-02,  0.15900E-01,   0.00381,   110.0,   110.0,    89.0,   0.00000,   0.00000,   0.00000,   0.00000,  1,  1,     0.00,   0,   1.0000
  3339,  3310,'01', 0.11000E-01,  0.26300E-01,   0.00619,    95.0,    95.0,    95.0,   0.00000,   0.00000,   0.00000,   0.00000,  1,  1,     0.00,   0,   1.0000
  3341,  3338,'01', 0.99840E-02,  0.26126E-01,   0.00625,   110.0,   110.0,   110.0,   0.00000,   0.00000,   0.00000,   0.00000,  1,  1,     0.00,   0,   1.0000
  3341,  3349,'01', 0.45000E-01,  0.11800E+00,   0.02810,   105.0,   105.0,   105.0,   0.00000,   0.00000,   0.00000,   0.00000,  1,  1,     0.00,   0,   1.0000
  3342,  9042,'01', 0.00000E+00,  0.10000E-02,   0.00000,     0.0,     0.0,     0.0,   0.00000,   0.00000,   0.00000,   0.00000,  1,  1,     0.00,   0,   1.0000
  3343,  9043,'01', 0.00000E+00,  0.10000E-02,   0.00000,     0.0,     0.0,     0.0,   0.00000,   0.00000,   0.00000,   0.00000,  1,  1,     0.00,   0,   1.0000
  3348,  3306,'01', 0.14600E+00,  0.15000E+00,   0.00189,    23.0,    23.0,    23.0,   0.00000,   0.00000,   0.00000,   0.00000,  1,  1,     0.00,   0,   1.0000
  3348,  3325,'01', 0.92000E-01,  0.95000E-01,   0.00119,    23.0,    23.0,    23.0,   0.00000,   0.00000,   0.00000,   0.00000,  1,  1,     0.00,   0,   1.0000
  3381,  3327,'01', 0.26250E+00,  0.27020E+00,   0.00339,    23.0,    23.0,    23.0,   0.00000,   0.00000,   0.00000,   0.00000,  1,  1,     0.00,   0,   1.0000
  4101,  3330,'01', 0.22500E-01,  0.65000E-01,   0.01581,   114.0,   114.0,   114.0,   0.00000,   0.00000,   0.00000,   0.00000,  1,  1,     0.00,   0,   1.0000
  9001,  4063,'01', 0.00000E+00,  0.10000E-02,   0.00000,    37.0,    37.0,    37.0,   0.00000,   0.00000,   0.00000,   0.00000,  1,  1,     0.00,   0,   1.0000
 0  / END OF BRANCH DATA, BEGIN TRANSFORMER DATA
  1752,   1753,      0,'01', 1, 1, 1,      0.000,      0.000, 1, '            ', 1,    0,   1.00000
 0.00000E+00,  0.10840E+00,    100.000
  0.98550,   0.00000,   0.00000,     67.00,     67.00,     32.00,  1,    1753,      1.05000,      0.85000,      1.00500,      1.00500, 32,  0,   0.00000,   0.00000
  1.00000,   0.00000
  1752,   1753,      0,'02', 1, 1, 1,      0.000,      0.000, 1, '            ', 1,    0,   1.00000
 0.00000E+00,  0.10840E+00,    100.000
  0.98550,   0.00000,   0.00000,     67.00,     67.00,     32.00,  1,    1753,      1.05000,      0.85000,      1.00500,      1.00500, 32,  0,   0.00000,   0.00000
  1.00000,   0.00000
  3300,   3324,      0,'01', 1, 1, 1,      0.000,      0.000, 1, '            ', 1,    0,   1.00000
 0.52200E-01,  0.41490E+00,    100.000
  1.00000,   0.00000,   0.00000,     15.00,     15.00,    103.00,  0,       0,      1.00000,      1.00000,      0.00000,      0.00000, 33,  0,   0.00000,   0.00000
  1.00000,   0.00000
  3301,   3302,      0,'01', 1, 1, 1,      0.000,      0.000, 1, '            ', 1,    0,   1.00000
 0.73000E-02,  0.17360E+00,    100.000
  0.97500,   0.00000,   0.00000,     37.00,     37.00,     33.00,  0,       0,      0.97500,      0.97500,      0.00000,      0.00000, 33,  0,   0.00000,   0.00000
  1.00000,   0.00000
  3303,   3304,      0,'01', 1, 1, 1,      0.000,      0.000, 1, '            ', 1,    0,   1.00000
 0.73000E-02,  0.16900E+00,    100.000
  0.97500,   0.00000,   0.00000,     37.00,     37.00,     95.00,  0,       0,      0.97500,      0.97500,      0.00000,      0.00000, 33,  0,   0.00000,   0.00000
  1.00000,   0.00000
  3305,   3306,      0,'01', 1, 1, 1,      0.000,      0.000, 1, '            ', 1,    0,   1.00000
 0.79000E-02,  0.15310E+00,    100.000
  0.95000,   0.00000,   0.00000,     37.00,     37.00,     80.00,  0,       0,      0.95000,      0.95000,      0.00000,      0.00000, 33,  0,   0.00000,   0.00000
  1.00000,   0.00000
  3307,   3308,      0,'01', 1, 1, 1,      0.000,      0.000, 1, '            ', 1,    0,   1.00000
 0.85100E-01,  0.15990E+00,    100.000
  0.95000,   0.00000,   0.00000,     37.00,     37.00,    206.00,  0,       0,      0.95000,      0.95000,      0.00000,      0.00000, 33,  0,   0.00000,   0.00000
  1.00000,   0.00000
  3310,   3311,      0,'01', 1, 1, 1,      0.000,      0.000, 1, '            ', 1,    0,   1.00000
 0.81000E-02,  0.15580E+00,    100.000
  0.97500,   0.00000,   0.00000,     37.00,     37.00,     37.00,  0,       0,      0.97500,      0.97500,      0.00000,      0.00000, 33,  0,   0.00000,   0.00000
  1.00000,   0.00000
  3313,   3314,      0,'01', 1, 1, 1,      0.000,      0.000, 1, '            ', 1,    0,   1.00000
 0.81000E-02,  0.15560E+00,    100.000
  0.97500,   0.00000,   0.00000,     37.00,     37.00,     51.00,  0,       0,      0.97500,      0.97500,      0.00000,      0.00000, 33,  0,   0.00000,   0.00000
  1.00000,   0.00000
  3321,   3322,      0,'01', 1, 1, 1,      0.000,      0.000, 1, '            ', 1,    0,   1.00000
 0.14400E-01,  0.24800E+00,    100.000
  1.00000,   0.00000,   0.00000,     25.00,     25.00,    153.00,  0,       0,      1.00000,      1.00000,      0.00000,      0.00000, 33,  0,   0.00000,   0.00000
  1.00000,   0.00000
  3332,   3316,      0,'01', 1, 1, 1,      0.000,      0.000, 1, '            ', 1,    0,   1.00000
 0.14200E-01,  0.22660E+00,    100.000
  1.00000,   0.00000,   0.00000,     25.00,     25.00,    153.00,  0,       0,      1.00000,      1.00000,      0.00000,      0.00000, 33,  0,   0.00000,   0.00000
  1.00000,   0.00000
  3344,   3345,      0,'01', 1, 1, 1,      0.000,      0.000, 1, '            ', 1,    0,   1.00000
 0.00000E+00,  0.67000E-01,    100.000
  0.98490,   0.00000,   0.00000,    150.00,    180.00,    150.00,  1,    3345,      1.10000,      0.90000,      1.02600,      1.02600, 32,  0,   0.00000,   0.00000
  1.00000,   0.00000
  3345,   3338,      0,'01', 1, 1, 1,      0.000,      0.000, 1, '            ', 1,    0,   1.00000
 0.00000E+00,  0.98000E-02,    100.000
  1.00000,   0.00000,  -0.06000,    150.00,    180.00,    150.00, -3,       0,      0.00000,      0.00000,      0.00000,      0.00000, 99,  0,   0.00000,   0.00000
  1.00000,   0.00000
  4101,   4100,      0,'01', 1, 1, 1,      0.000,      0.000, 1, '            ', 1,    0,   1.00000
 0.00000E+00,  0.24000E+00,    100.000
  1.00000,   0.00000,   0.00000,      0.00,      0.00,     50.00,  0,       0,      1.00000,      1.00000,      0.00000,      0.00000, 33,  0,   0.00000,   0.00000
  1.00000,   0.00000
  9001,   3319,      0,'01', 1, 1, 1,      0.000,      0.000, 1, '            ', 1,    0,   1.00000
 0.13700E-01,  0.15940E+00,    100.000
  1.00000,   0.00000,   0.00000,     37.00,     37.00,     37.00,  0,       0,      1.00000,      1.00000,      0.00000,      0.00000, 33,  0,   0.00000,   0.00000
  1.00000,   0.00000
 0  / END OF TRANSFORMER DATA, BEGIN AREA DATA
     1,     0,     0.000,    10.000, 'FURNAS    '
    18,     0,     0.000,    10.000, 'ENERGISA M'
    65,     0,     0.000,    10.000, 'CENF      '
 0  / END OF AREA DATA, BEGIN TWO-TERMINAL DC DATA
 0  / END OF TWO-TERMINAL DC DATA, BEGIN VSC DATA
 0  / END OF VSC DATA, BEGIN IMPEDANCE CORRECTION DATA
 0 / END OF IMPEDANCE CORRECTION DATA, BEGIN MULTI-TERMINAL DC DATA
 0 / END OF MULTI-TERMINAL DC DATA, BEGIN MULTI-SECTION LINE DATA
 0 / END OF MULTI-SECTION LINE DATA, BEGIN ZONE DATA
 0 / END OF ZONE DATA, BEGIN INTER-AREA TRANSFER DATA
 0 / END OF INTER-AREA TRANSFER DATA, BEGIN OWNER DATA
 0 / END OF OWNER DATA, BEGIN FACTS CONTROL DEVICE DATA
 0 / END OF FACTS CONTROL DEVICE DATA, BEGIN SWITCHED SHUNT DATA
 0 / END OF SWITCHED SHUNT DATA
Q / END OF DATA
